Version 4
SHEET 1 1492 1024
WIRE -496 -48 -544 -48
WIRE -240 -48 -496 -48
WIRE -496 -16 -496 -48
WIRE -288 -16 -416 -16
WIRE -240 -16 -288 -16
WIRE 80 -16 -16 -16
WIRE -256 16 -336 16
WIRE -240 16 -256 16
WIRE -336 48 -336 16
WIRE -256 48 -256 16
WIRE -416 80 -416 -16
WIRE -144 80 -144 48
WIRE -48 80 -144 80
WIRE -48 96 -48 80
WIRE 80 96 80 48
WIRE -256 128 -256 112
WIRE -496 208 -496 48
WIRE -416 208 -416 160
WIRE -336 208 -336 112
WIRE 80 208 80 176
WIRE -544 240 -544 -48
WIRE -48 240 -48 160
WIRE -48 240 -544 240
FLAG -496 208 0
FLAG -336 208 0
FLAG -416 208 0
FLAG 80 208 0
FLAG 80 -16 out
FLAG -288 -16 in
FLAG -256 128 0
FLAG -48 96 0
SYMBOL Misc\\cell -496 -16 R0
WINDOW 123 0 0 Left 2
WINDOW 39 0 0 Left 2
SYMATTR InstName V1
SYMATTR Value 3.3
SYMBOL cap 96 48 R180
WINDOW 0 24 56 Left 2
WINDOW 3 24 8 Left 2
SYMATTR InstName C1
SYMATTR Value 1000µ
SYMBOL voltage -416 64 R0
WINDOW 123 24 124 Left 2
WINDOW 39 0 0 Left 2
SYMATTR Value2 AC 1 0
SYMATTR InstName V2
SYMATTR Value SINE({vin_dc+voff} 0.1 1k)
SYMBOL haruna_ab -128 -16 R0
SYMATTR InstName amp
SYMBOL cap -352 48 R0
SYMATTR InstName C3
SYMATTR Value 100µ
SYMBOL res 64 80 R0
SYMATTR InstName RL
SYMATTR Value 8
SYMBOL Misc\\cell -256 48 R0
WINDOW 123 0 0 Left 2
WINDOW 39 0 0 Left 2
SYMATTR InstName V3
SYMATTR Value {vin_dc}
TEXT -584 280 Left 1 !.tran 3m
TEXT -584 304 Left 1 !.include "./models/OR1_mos"
TEXT -584 248 Left 1 !;ac dec 100 1 100MEG
TEXT -320 304 Left 2 ;.step param cc 2p 8p 2p
TEXT 40 304 Left 2 !.param cc=6p
TEXT -320 352 Left 2 ;.step param np 300 600 100?
TEXT 40 352 Left 2 !.param np=100
TEXT 40 264 Left 2 !.param vin_dc=1.65
TEXT -320 264 Left 2 ;.step param voff -0.1 0.1 0.025
TEXT -232 224 Left 2 !.param voff=0
