Version 4
SHEET 1 1492 1024
WIRE 384 -176 304 -176
WIRE 304 -80 304 -96
WIRE 528 -64 448 -64
WIRE 528 -16 528 -64
WIRE 384 16 384 -176
WIRE 384 16 368 16
WIRE 448 16 448 -64
WIRE 448 16 384 16
WIRE 496 16 448 16
WIRE 704 16 640 16
WIRE 688 48 640 48
WIRE 496 64 368 64
WIRE 704 80 704 16
WIRE 704 80 640 80
WIRE 688 112 688 48
WIRE 688 112 640 112
WIRE 272 160 272 96
WIRE 320 160 320 96
FLAG 304 -80 0
DATAFLAG -96 464 ""
SYMBOL test3 240 48 R0
SYMATTR InstName X1
SYMBOL bgr8 560 16 R0
SYMATTR InstName X2
SYMBOL voltage 304 -192 R0
WINDOW 123 0 0 Left 0
WINDOW 39 0 0 Left 0
SYMATTR InstName V4
SYMATTR Value 5
TEXT -584 280 Left 1 !;tran 3m
TEXT -584 304 Left 1 !.include "./models/OR1_mos"
TEXT -584 248 Left 1 !;ac dec 100 1 100MEG
TEXT -320 304 Left 2 ;.step param cc 2p 8p 2p
TEXT 40 304 Left 2 !.param cc=6p
TEXT -320 352 Left 2 ;.step param np 300 600 100?
TEXT 40 352 Left 2 !.param np=100
TEXT 40 264 Left 2 !.param vin_dc=1.65
TEXT -320 264 Left 2 ;.step param voff -0.1 0.1 0.025
TEXT 256 320 Left 2 !.dc temp -50 150 0.1
