Version 4
SHEET 1 1492 1024
WIRE 112 -208 32 -208
WIRE 384 -112 304 -112
WIRE 112 -96 112 -144
WIRE -240 -48 -496 -48
WIRE -496 -16 -496 -48
WIRE -288 -16 -416 -16
WIRE -240 -16 -288 -16
WIRE 32 -16 32 -208
WIRE 32 -16 -16 -16
WIRE 304 -16 304 -32
WIRE 528 0 448 0
WIRE -256 16 -336 16
WIRE -240 16 -256 16
WIRE 112 16 112 -16
WIRE -336 48 -336 16
WIRE -256 48 -256 16
WIRE 528 48 528 0
WIRE -416 80 -416 -16
WIRE -144 80 -144 48
WIRE 128 80 -144 80
WIRE 384 80 384 -112
WIRE 384 80 368 80
WIRE 448 80 448 0
WIRE 448 80 384 80
WIRE 496 80 448 80
WIRE 704 80 640 80
WIRE 688 112 640 112
WIRE -256 128 -256 112
WIRE 496 128 368 128
WIRE 704 144 704 80
WIRE 704 144 640 144
WIRE 688 176 688 112
WIRE 688 176 640 176
WIRE -496 208 -496 48
WIRE -416 208 -416 160
WIRE -336 208 -336 112
WIRE 224 224 224 160
WIRE 272 224 272 160
FLAG -496 208 0
FLAG -336 208 0
FLAG -416 208 0
FLAG 112 16 0
FLAG 112 -208 out
FLAG -288 -16 in
FLAG -256 128 0
FLAG 304 -16 0
SYMBOL Misc\\cell -496 -16 R0
WINDOW 123 0 0 Left 2
WINDOW 39 0 0 Left 2
SYMATTR InstName V1
SYMATTR Value 3.3
SYMBOL cap 128 -144 R180
WINDOW 0 24 56 Left 2
WINDOW 3 24 8 Left 2
SYMATTR InstName C1
SYMATTR Value 1000µ
SYMBOL voltage -416 64 R0
WINDOW 123 24 124 Left 2
WINDOW 39 0 0 Left 2
SYMATTR Value2 AC 1 0
SYMATTR InstName V2
SYMATTR Value SINE({vin_dc+voff} 0.1 1k)
SYMBOL haruna_ab -128 -16 R0
SYMATTR InstName amp
SYMBOL cap -352 48 R0
SYMATTR InstName C3
SYMATTR Value 100µ
SYMBOL res 96 -112 R0
SYMATTR InstName RL
SYMATTR Value 8
SYMBOL Misc\\cell -256 48 R0
WINDOW 123 0 0 Left 2
WINDOW 39 0 0 Left 2
SYMATTR InstName V3
SYMATTR Value {vin_dc}
SYMBOL test3 240 112 R0
SYMATTR InstName X1
SYMBOL bgr8 560 80 R0
SYMATTR InstName X2
SYMBOL voltage 304 -128 R0
WINDOW 123 0 0 Left 0
WINDOW 39 0 0 Left 0
SYMATTR InstName V4
SYMATTR Value 5
TEXT -584 280 Left 1 !.tran 3m
TEXT -584 304 Left 1 !.include "./models/OR1_mos"
TEXT -584 248 Left 1 !;ac dec 100 1 100MEG
TEXT -320 304 Left 2 ;.step param cc 2p 8p 2p
TEXT 40 304 Left 2 !.param cc=6p
TEXT -320 352 Left 2 ;.step param np 300 600 100?
TEXT 40 352 Left 2 !.param np=100
TEXT 40 264 Left 2 !.param vin_dc=1.65
TEXT -320 264 Left 2 ;.step param voff -0.1 0.1 0.025
TEXT -232 224 Left 2 !.param voff=0
TEXT 256 320 Left 2 !;dc temp -50 150 0.1
TEXT -584 352 Left 2 !.temp 120
TEXT -576 376 Left 2 !;step temp -50 150 25
