.MODEL BSIM3V3N NMOS ( 
+LEVEL=49             VERSION=3.3            TNOM=27             
+TOX=1.35E-008      XJ=2.5E-007       NCH=1.6E+017       
+VTH0=0.624532       K1=0.885812       K2=0.000618965    
+K3=7.43344        K3B=-1.93676       W0=2.5E-006       
+NLX=1.26207E-007   DVT0W=0.37392        DVT1W=66607.6        
+DVT2W=0.0422643      DVT0=2.92924        DVT1=0.699628       
+DVT2=-0.2494        U0=0.0390518      UA=-7.4126E-010   
+UB=2.77212E-018   UC=4.45367E-011   VSAT=56400          
+A0=1.09645        AGS=0.133603       B0=1.04607E-007   
+B1=3.63715E-007   KETA=-0.00720105    A1=0              
+A2=1              RDSW=967.551        PRWG=0.0480075      
+PRWB=0.5            WR=0.9979         WINT=2.78571E-007   
+LINT=8.18154E-009   XL=0              XW=0              
+DWG=-1.33075E-008  DWB=1.26044E-008   VOFF=-0.1287        
+NFACTOR=0.814286       CIT=0              CDSC=0.00024        
+CDSCD=0              CDSCB=2.72109E-005   ETA0=0.0495034      
+ETAB=-0.219861      DSUB=0.56           PCLM=0.817121       
+PDIBLC1=0.0544747      PDIBLC2=0.000204358    PDIBLCB=0              
+DROUT=0.56           PSCBE1=5.92996E+008   PSCBE2=5E-005         
+PVAG=0              DELTA=0.008          ALPHA0=2.60121E-005   
+BETA0=33.7762        ALPHA1=6.03274        RSH=40             
+HDIF=8E-007         MOBMOD=1              PRT=1301.7         
+UTE=-0.822846      KT1=-0.403155      KT1L=2.10307E-008   
+KT2=-0.0246124     UA1=5.474E-009     UB1=-7.18988E-018  
+UC1=-4.403E-011    AT=126577         NQSMOD=0              
+WL=0              WLN=1              WW=0              
+WWN=1              WWL=0              LL=-3.01781E-014  
+LLN=1              LW=0              LWN=1              
+LWL=0              CAPMOD=2              TPB=0              
+TPBSW=0              TPBSWG=0              TCJ=0              
+TCJSW=0              TCJSWG=0              PARAMCHK=1              
+NOFF=1              ACDE=1              MOIN=15             
+LK1=0.0211426      LVOFF=-0.01658       PVOFF=0              
+LU0=0.019          LK2=0.00142433     LUA=2.4833E-009    
+LUB=-1.5E-018      LUC=1.9E-010       WU0=0.000608513    
+WVTH0=-0.0229537     WK1=0.0251229      WUA=-2.68023E-011  
+WUB=3.95271E-019   WUC=3.177E-011     PVTH0=0.0907481      
+PK1=0.00194433     PK2=-0.00754766    PU0=0.01           
+PUA=1.262E-010     PUB=-2.4E-019      PUC=-5E-011        
+LDELTA=0.00626375     WDELTA=0.00954855     PDELTA=0.00642269     
+WRDSW=-192.399       PRDSW=-170           WPRWG=0              
+PPRWG=0              WPRWB=0              PPRWB=0              
+LVSAT=7370           WVSAT=45920.2        PVSAT=8000           
+LA0=-0.492815      WA0=-0.0680412     PA0=0.293333       
+LAGS=0.4354         WAGS=0.000148772    PAGS=-0.456         
+LKETA=-0.0491008     WKETA=0.00484182     PKETA=0.044          
+LETAB=0.0989531      WETAB=0              PETAB=-0.01          
+LALPHA0=-9.79009E-006  WALPHA0=6.28532E-008   PALPHA0=1.97228E-006   
+LALPHA1=-13.9384       WALPHA1=4.58116        PALPHA1=3.04169        
+LBETA0=-3.38247       WBETA0=2.87025        PBETA0=2.96872        
+LKT2=-0.00816286    PKT1=-0.037095      PKT2=-0.00388869    
+PKT1L=0              LUA1=5.47458E-009   LUB1=-1.069E-017    
+LUC1=6E-011         LUTE=0.176918       WKT1=0.0360836      
+WKT2=0.00853189     WUA1=-1.142E-009    WUB1=1.91209E-018   
+WUC1=8.56031E-012   WUTE=-0.114356      PUA1=-1.6473E-009   
+PUB1=1.55741E-018   PUC1=-8.57E-011     PUTE=-0.000140083   
+PPRT=0              LAT=-64000         WAT=43616.8        
+PAT=-90365.7       NOIMOD=2              AF=0.9            
+EF=1.05           KF=6E-028         NOIA=2.5E+022       
+NOIB=-2.5E+006      NOIC=4.1E-011       EM=-1E+007 )

