.MODEL BSIM3V3P PMOS ( 
+LEVEL=49             VERSION=3.3            TNOM=27             
+TOX=1.35E-008      XJ=2E-007         NCH=8.1E+017       
+VTH0=-0.907855      K1=0.633968       K2=0              
+K3=4.033          K3B=-5.097         W0=4.944E-006     
+NLX=2E-007         DVT0W=0.3646         DVT1W=21350          
+DVT2W=-0.032         DVT0=3.34201        DVT1=0.186835       
+DVT2=-0.1           U0=0.0253001      UA=4.39271E-009   
+UB=-1.38479E-018  UC=-6.01903E-011  VSAT=130000         
+A0=0.84905        AGS=0.134778       B0=1.184E-006     
+B1=3.454E-006     KETA=-0.00111       A1=0              
+A2=1              RDSW=714.396        PRWG=0.225          
+PRWB=0.08543        WR=0.9919         WINT=3.103E-007     
+LINT=-3.458E-008    XL=0              XW=0              
+DWG=-8.593E-008    DWB=-5.914E-008    VOFF=-0.134177      
+NFACTOR=0.601892       CIT=0              CDSC=0.00024        
+CDSCD=0              CDSCB=0              ETA0=0.153417       
+ETAB=-0.01          DSUB=0.56           PCLM=2.649          
+PDIBLC1=2.056          PDIBLC2=1E-005         PDIBLCB=0              
+DROUT=0.56           PSCBE1=5.667E+008     PSCBE2=5E-005         
+PVAG=1.425          DELTA=0.003368       ALPHA0=1E-009         
+BETA0=48.09          ALPHA1=3.198          RSH=90             
+HDIF=8E-007         MOBMOD=1              PRT=4048           
+UTE=-1.434         KT1=-0.584556      KT1L=-2.33074E-008  
+KT2=-0.0358831     UA1=3.41E-011      UB1=-1.844E-018    
+UC1=3.111E-011     AT=80000          NQSMOD=0              
+WL=0              WLN=1              WW=-7.835E-014    
+WWN=1              WWL=0              LL=3.50956E-014   
+LLN=0.926157       LW=0              LWN=1              
+LWL=0              CAPMOD=2              TPB=0              
+TPBSW=0              TPBSWG=0              TCJ=0              
+TCJSW=0              TCJSWG=0              PARAMCHK=1              
+NOFF=1              ACDE=1              MOIN=15             
+LK1=0.0684108      LVOFF=0.05           WVOFF=-0.056746      
+PVOFF=0.0105414      LUA=1.73747E-009   LUB=-1.39102E-018  
+LUC=3.163E-011     WUA=1.59918E-009   WUB=6.12258E-018   
+WUC=-5.044E-011    WVTH0=-0.01632       WK1=-0.0184659     
+PVTH0=-0.0456359     WDVT0=0              WDVT1=0              
+WDVT2=0              WNLX=0              PK1=0.0177513      
+PK2=0              PUA=-6.62629E-010  PUB=6.69306E-019   
+PUC=-4.21561E-011  LDELTA=0.0392         WDELTA=0.01248        
+PDELTA=-0.003855      WRDSW=0              PRDSW=0              
+WPRWG=0              PPRWG=0              WPRWB=0              
+PPRWB=0              LVSAT=-33400         WVSAT=0              
+PVSAT=14630          LA0=-0.2           WA0=0.0331812      
+PA0=-0.091381      LAGS=0.219684       WAGS=-0.0329369     
+PAGS=-0.2           LKETA=-0.02491       WKETA=0.00893        
+PKETA=0.00919573     LETAB=0              WETAB=0              
+PETAB=0              LALPHA0=1E-010         WALPHA0=-1.409E-006    
+PALPHA0=3.42978E-007   LALPHA1=-1.291         WALPHA1=4.367          
+PALPHA1=-1.83575       LBETA0=-5.693         WBETA0=2.963          
+PBETA0=-0.687777      LKT2=0              PKT2=0              
+PKT1=0.0009372      PKT1L=0              LUA1=7.73586E-009   
+LUB1=-2.18756E-017  LUC1=-4.242E-010    LUTE=0.446127       
+WUA1=-7.98E-010     WUB1=-3.06389E-018  WUC1=5.33286E-011   
+WUTE=-0.2041        PUA1=-3.07788E-009  PUB1=-1.60005E-018  
+PUC1=-3.69512E-010  PUTE=-0.16935       PPRT=0              
+LAT=0              WAT=0              PAT=68428.5        
+NOIMOD=2              AF=1.5            EF=1.2            
+KF=3.3E-027       NOIA=6.9E+018       NOIB=43000          
+NOIC=8.3E-013       EM=-1E+007 )

