.MODEL NDIO D ( 
+LEVEL=3              IS=4.7477E-11     ISW=1.5416E-16     
+RS=8.21796E-08    N=0.563927       IKF=0.6            
+IKR=1E-06          BV=12.1388        IBV=1E-07          
+CAPMOD=0              CJO=0.000594818    VJ=0.77906        
+MJ=0.359535       FC=0.74374        CJSW=3.99185E-10    
+VJSW=0.5            MJSW=0.161007       FCSW=0.34808 )
