.MODEL PDIO D ( 
+LEVEL=3              IS=3.37834E-11    ISW=4.87368E-17    
+RS=8.41577E-08    N=0.556726       IKF=0.6            
+IKR=1E-06          BV=13.1509        IBV=1E-07          
+CAPMOD=0              CJO=0.000686784    VJ=0.883825       
+MJ=0.478884       FC=0.627155       CJSW=3.34926E-10    
+VJSW=0.513784       MJSW=0.166316       FCSW=0.95 )
